<?xml version="1.0" encoding="UTF-8"?>

<!-- generated on Tue 08 Nov 2022 10:02:36 AM UTC by Eclipse SUMO netedit Version 1.4.0
<configuration xmlns:xsi="http://www.w3.org/2001/XMLSchema-instance" xsi:noNamespaceSchemaLocation="http://sumo.dlr.de/xsd/netconvertConfiguration.xsd">

    <input>
        <sumo-net-file value="/home/veins/sumotest/CP/run1/final/test1/run1.net.xml"/>
    </input>

    <output>
        <output-file value="/home/veins/sumotest/CP/run1/final/test1/811.net.xml"/>
    </output>

    <processing>
        <geometry.min-radius.fix.railways value="false"/>
        <geometry.max-grade.fix value="false"/>
        <offset.disable-normalization value="true"/>
        <lefthand value="false"/>
    </processing>

    <junctions>
        <no-turnarounds value="true"/>
        <junctions.corner-detail value="5"/>
        <junctions.limit-turn-speed value="5.5"/>
        <rectangular-lane-cut value="false"/>
    </junctions>

    <pedestrian>
        <walkingareas value="false"/>
    </pedestrian>

    <netedit>
        <additional-files value="/home/veins/sumotest/CP/run1/final/test1/811.add.xml"/>
        <route-files value="/home/veins/sumotest/CP/run1/final/test1/811.rou.xml"/>
    </netedit>

    <report>
        <aggregate-warnings value="5"/>
    </report>

</configuration>
-->

<routes xmlns:xsi="http://www.w3.org/2001/XMLSchema-instance" xsi:noNamespaceSchemaLocation="http://sumo.dlr.de/xsd/routes_file.xsd">
    <vType id="bus" vClass="bus" color="red"/>
    <vType id="tram" vClass="tram" color="blue"/>
    <route edges="-56041151#1 -56041151#0 -86860823 86860821#0 86860821#1 86860821#2 189004526#0 189004526#1 86865206 33557890#0 33557890#1" color="yellow" id="route_0"/>
    <route edges="-56041151#0 -86860823 86860821#0 86860821#1 86860821#2 189004526#0 189004526#1 86865206 -26925581#2 -26925581#1 -26925581#0 -863004827 -26925580" color="yellow" id="route_1"/>
    <route edges="24798229#6 428260942 428260946#0 428260946#1 31014214 86865206 33557890#0 33557890#1" color="yellow" id="route_10"/>
    <route edges="24798229#6 428260942 428260946#0 428260946#1 31014214 86865206 -26925581#2 -26925581#1 -26925581#0 -863004827 -26925580" color="yellow" id="route_11"/>
    <route edges="24798229#6 428260942 428260946#0 428260946#1 31014214 56043685#0 56043685#1" color="yellow" id="route_12"/>
    <route edges="24798229#6 428260942 428260946#0 428260946#1 86865230#0 86865230#1 86865230#2 86865230#3 86865230#4 86860823 56041151#0 56041151#1" color="yellow" id="route_13"/>
    <route edges="428260943 428260945#0 428260945#1 118227930 33557890#0 33557890#1" color="yellow" id="route_14">
        <stop busStop="busStop_33557890#1_0_1" duration="60.00"/>
    </route>
    <route edges="24798229#6 428260942 428260946#0 428260946#1 31014214 56043685#0 56043685#1" color="yellow" id="route_15">
        <stop busStop="busStop_56043685#1_0_6" duration="60.00"/>
    </route>
    <route edges="-56041151#1 -56041151#0 -86860823 86860821#0 86860821#1 86860821#2 189004526#0 189004526#1 86865206 33557890#0 33557890#1" color="yellow" id="route_16">
        <stop busStop="busStop_33557890#1_0_1" duration="60.00"/>
    </route>
    <route edges="-56041151#1 -56041151#0 -86860823 86860821#0 86860821#1 86860821#2 189004526#0 189004526#1 56043685#0 56043685#1" color="yellow" id="route_17">
        <stop busStop="busStop_56043685#1_0_0" duration="60.00"/>
    </route>
    <route edges="428260943 428260945#0 428260945#1 118227930 4041687 86865230#0 86865230#1 86865230#2 86865230#3 86865230#4 86860823 56041151#0 56041151#1" color="yellow" id="route_18">
        <stop busStop="busStop_86860823_0_7" duration="60.00"/>
    </route>
    <route edges="24798229#6 428260942 428260946#0 428260946#1 86865230#0 86865230#1 86865230#2 86865230#3 86865230#4 86860823 56041151#0 56041151#1" color="yellow" id="route_19">
        <stop busStop="busStop_86860823_0_4" duration="60.00"/>
    </route>
    <route edges="-56041151#1 -56041151#0 -86860823 86860821#0 86860821#1 86860821#2 189004526#0 189004526#1 56043685#0 56043685#1" color="yellow" id="route_2"/>
    <route edges="251393900#2 251393900#3 251393900#4 251393900#5" color="yellow" id="route_20">
        <stop busStop="busStop_251393900#2_0_3" duration="60.00"/>
    </route>
    <route edges="251393901#0 251393901#1 251393901#2 251393901#3" color="yellow" id="route_21">
        <stop busStop="busStop_251393901#3_0_2" duration="60.00"/>
    </route>
    <route edges="428260943 428260945#0 428260945#1 118227930 4041687 31014214 56043685#0 56043685#1" color="yellow" id="route_3"/>
    <route edges="428260943 428260945#0 428260945#1 118227930 4041687 86865230#0 86865230#1 86865230#2 86865230#3 86865230#4 86860823 56041151#0 56041151#1" color="yellow" id="route_4"/>
    <route edges="428260943 428260945#0 428260945#1 118227930 33557890#0 33557890#1" color="yellow" id="route_5"/>
    <route edges="428260943 428260945#0 428260945#1 118227930 -26925581#2 -26925581#1 -26925581#0 -863004827 -26925580" color="yellow" id="route_6"/>
    <route edges="26925580 863004827 26925581#0 26925581#1 26925581#2 4041687 31014214 56043685#0 56043685#1" color="yellow" id="route_7"/>
    <route edges="26925580 863004827 26925581#0 26925581#1 26925581#2 4041687 86865230#0 86865230#1 86865230#2 86865230#3 86865230#4 86860823 56041151#0" color="yellow" id="route_8"/>
    <route edges="26925580 863004827 26925581#0 26925581#1 26925581#2 33557890#0 33557890#1" color="yellow" id="route_9"/>
    <vehicle id="vehicle_0" depart="83.00" route="route_12"/>
<vehicle id="vehicle_1" depart="87.00" route="route_12"/>
<vehicle id="vehicle_2" depart="164.00" route="route_12"/>
<vehicle id="vehicle_3" depart="170.00" route="route_12"/>
<vehicle id="vehicle_4" depart="220.00" route="route_12"/>
<vehicle id="vehicle_5" depart="244.00" route="route_5"/>
<vehicle id="vehicle_6" depart="268.00" route="route_5"/>
<vehicle id="vehicle_7" depart="283.00" route="route_5"/>
<vehicle id="vehicle_8" depart="283.00" route="route_5"/>
<vehicle id="vehicle_9" depart="325.00" route="route_5"/>
<vehicle id="vehicle_10" depart="352.00" route="route_5"/>
<vehicle id="vehicle_11" depart="362.00" route="route_12"/>
<vehicle id="vehicle_12" depart="377.00" route="route_12"/>
<vehicle id="vehicle_13" depart="432.00" route="route_12"/>
<vehicle id="vehicle_14" type="bus" depart="481.00" route="route_14"/>
<vehicle id="vehicle_15" depart="505.00" route="route_12"/>
<vehicle id="vehicle_16" depart="552.00" route="route_5"/>
</routes>
