<?xml version="1.0" encoding="UTF-8"?>

<!-- generated on Tue 08 Nov 2022 10:02:06 AM UTC by Eclipse SUMO netedit Version 1.4.0
<configuration xmlns:xsi="http://www.w3.org/2001/XMLSchema-instance" xsi:noNamespaceSchemaLocation="http://sumo.dlr.de/xsd/netconvertConfiguration.xsd">

    <input>
        <sumo-net-file value="/home/veins/sumotest/CP/run1/final/test1/run1.net.xml"/>
    </input>

    <output>
        <output-file value="/home/veins/sumotest/CP/run1/final/test1/811.net.xml"/>
    </output>

    <processing>
        <geometry.min-radius.fix.railways value="false"/>
        <geometry.max-grade.fix value="false"/>
        <offset.disable-normalization value="true"/>
        <lefthand value="false"/>
    </processing>

    <junctions>
        <no-turnarounds value="true"/>
        <junctions.corner-detail value="5"/>
        <junctions.limit-turn-speed value="5.5"/>
        <rectangular-lane-cut value="false"/>
    </junctions>

    <pedestrian>
        <walkingareas value="false"/>
    </pedestrian>

    <netedit>
        <additional-files value="/home/veins/sumotest/CP/run1/final/test1/1.add.xml"/>
        <route-files value="/home/veins/sumotest/CP/run1/final/test1/1.rou.xml"/>
    </netedit>

    <report>
        <aggregate-warnings value="5"/>
    </report>

</configuration>
-->

<net version="1.3" junctionCornerDetail="5" limitTurnSpeed="5.50" xmlns:xsi="http://www.w3.org/2001/XMLSchema-instance" xsi:noNamespaceSchemaLocation="http://sumo.dlr.de/xsd/net_file.xsd">

    <location netOffset="-489660.10,-5883447.05" convBoundary="204.68,462.29,481.91,660.35" origBoundary="8.819738,53.099356,8.861214,53.112110" projParameter="+proj=utm +zone=32 +ellps=WGS84 +datum=WGS84 +units=m +no_defs"/>

    <type id="highway.bridleway" priority="1" numLanes="1" speed="2.78" allow="pedestrian" oneway="1" width="2.00"/>
    <type id="highway.bus_guideway" priority="1" numLanes="1" speed="27.78" allow="bus" oneway="1"/>
    <type id="highway.cycleway" priority="1" numLanes="1" speed="8.33" allow="bicycle" oneway="0" width="1.00"/>
    <type id="highway.footway" priority="1" numLanes="1" speed="2.78" allow="pedestrian" oneway="1" width="2.00"/>
    <type id="highway.ford" priority="1" numLanes="1" speed="2.78" allow="army" oneway="0"/>
    <type id="highway.living_street" priority="2" numLanes="1" speed="2.78" disallow="tram rail_urban rail rail_electric rail_fast ship" oneway="0"/>
    <type id="highway.motorway" priority="14" numLanes="2" speed="39.44" allow="private emergency authority army vip passenger hov taxi bus coach delivery truck trailer motorcycle evehicle custom1 custom2" oneway="1"/>
    <type id="highway.motorway_link" priority="9" numLanes="1" speed="22.22" allow="private emergency authority army vip passenger hov taxi bus coach delivery truck trailer motorcycle evehicle custom1 custom2" oneway="1"/>
    <type id="highway.path" priority="1" numLanes="1" speed="2.78" allow="pedestrian bicycle" oneway="1" width="2.00"/>
    <type id="highway.pedestrian" priority="1" numLanes="1" speed="2.78" allow="pedestrian" oneway="1" width="2.00"/>
    <type id="highway.primary" priority="12" numLanes="2" speed="27.78" disallow="tram rail_urban rail rail_electric rail_fast ship" oneway="0"/>
    <type id="highway.primary_link" priority="7" numLanes="1" speed="22.22" disallow="tram rail_urban rail rail_electric rail_fast ship" oneway="0"/>
    <type id="highway.raceway" priority="15" numLanes="2" speed="83.33" allow="vip" oneway="0"/>
    <type id="highway.residential" priority="3" numLanes="1" speed="13.89" disallow="tram rail_urban rail rail_electric rail_fast ship" oneway="0"/>
    <type id="highway.secondary" priority="11" numLanes="1" speed="27.78" disallow="tram rail_urban rail rail_electric rail_fast ship" oneway="0"/>
    <type id="highway.secondary_link" priority="6" numLanes="1" speed="22.22" disallow="tram rail_urban rail rail_electric rail_fast ship" oneway="0"/>
    <type id="highway.service" priority="1" numLanes="1" speed="5.56" allow="pedestrian delivery bicycle" oneway="0"/>
    <type id="highway.stairs" priority="1" numLanes="1" speed="1.39" allow="pedestrian" oneway="1" width="2.00"/>
    <type id="highway.step" priority="1" numLanes="1" speed="1.39" allow="pedestrian" oneway="1" width="2.00"/>
    <type id="highway.steps" priority="1" numLanes="1" speed="1.39" allow="pedestrian" oneway="1" width="2.00"/>
    <type id="highway.tertiary" priority="10" numLanes="1" speed="22.22" disallow="tram rail_urban rail rail_electric rail_fast ship" oneway="0"/>
    <type id="highway.tertiary_link" priority="5" numLanes="1" speed="22.22" disallow="tram rail_urban rail rail_electric rail_fast ship" oneway="0"/>
    <type id="highway.track" priority="1" numLanes="1" speed="5.56" disallow="tram rail_urban rail rail_electric rail_fast ship" oneway="0"/>
    <type id="highway.trunk" priority="13" numLanes="2" speed="27.78" disallow="pedestrian bicycle tram rail_urban rail rail_electric rail_fast ship" oneway="0"/>
    <type id="highway.trunk_link" priority="8" numLanes="1" speed="22.22" disallow="pedestrian bicycle tram rail_urban rail rail_electric rail_fast ship" oneway="0"/>
    <type id="highway.unclassified" priority="4" numLanes="1" speed="13.89" disallow="tram rail_urban rail rail_electric rail_fast ship" oneway="0"/>
    <type id="highway.unsurfaced" priority="1" numLanes="1" speed="8.33" disallow="tram rail_urban rail rail_electric rail_fast ship" oneway="0"/>
    <type id="railway.highspeed" priority="21" numLanes="1" speed="69.44" allow="rail_fast" oneway="1"/>
    <type id="railway.light_rail" priority="19" numLanes="1" speed="27.78" allow="rail_urban" oneway="1"/>
    <type id="railway.preserved" priority="16" numLanes="1" speed="27.78" allow="rail" oneway="1"/>
    <type id="railway.rail" priority="20" numLanes="1" speed="44.44" allow="rail" oneway="1"/>
    <type id="railway.subway" priority="18" numLanes="1" speed="27.78" allow="rail_urban" oneway="1"/>
    <type id="railway.tram" priority="17" numLanes="1" speed="13.89" allow="tram" oneway="1"/>

    <edge id=":1010791484_0" function="internal">
        <lane id=":1010791484_0_0" index="0" disallow="tram rail_urban rail rail_electric rail_fast ship" speed="8.94" length="1.62" shape="346.13,573.94 345.47,572.46"/>
    </edge>
    <edge id=":1010791484_1" function="internal">
        <lane id=":1010791484_1_0" index="0" disallow="tram rail_urban rail rail_electric rail_fast ship" speed="3.65" length="2.34" shape="346.13,573.94 346.30,572.50 346.84,571.79"/>
    </edge>
    <edge id=":1010791484_4" function="internal">
        <lane id=":1010791484_4_0" index="0" disallow="tram rail_urban rail rail_electric rail_fast ship" speed="3.65" length="2.34" shape="346.84,571.79 347.73,571.78 348.99,572.49"/>
    </edge>
    <edge id=":1010791484_2" function="internal">
        <lane id=":1010791484_2_0" index="0" disallow="tram rail_urban rail rail_electric rail_fast ship" speed="13.89" length="6.83" shape="346.12,566.29 348.99,572.49"/>
    </edge>
    <edge id=":1010791484_3" function="internal">
        <lane id=":1010791484_3_0" index="0" disallow="tram rail_urban rail rail_electric rail_fast ship" speed="5.69" length="12.75" shape="346.12,566.29 348.48,571.33 349.16,574.04 348.16,574.41 345.47,572.46"/>
    </edge>
    <edge id=":1010791485_0" function="internal">
        <lane id=":1010791485_0_0" index="0" disallow="tram rail_urban rail rail_electric rail_fast ship" speed="13.89" length="3.69" shape="340.20,568.08 339.31,567.44 338.69,567.02 338.04,566.64 337.08,566.11"/>
    </edge>
    <edge id=":1010791485_1" function="internal">
        <lane id=":1010791485_1_0" index="0" allow="tram" speed="13.89" length="5.06" shape="338.34,568.96 338.50,567.46 338.55,566.43 338.68,565.41 339.08,563.97"/>
    </edge>
    <edge id=":1010791540_0" function="internal">
        <lane id=":1010791540_0_0" index="0" disallow="tram rail_urban rail rail_electric rail_fast ship" speed="9.72" length="5.65" shape="335.45,568.18 335.02,566.55 334.71,565.45 334.35,564.36 333.76,562.79"/>
    </edge>
    <edge id=":1010791540_1" function="internal">
        <lane id=":1010791540_1_0" index="0" disallow="tram rail_urban rail rail_electric rail_fast ship" speed="7.94" length="4.67" shape="336.91,566.02 335.69,565.36 334.90,564.79 334.32,564.03 333.76,562.79"/>
    </edge>
    <edge id=":1815367406_0" function="internal">
        <lane id=":1815367406_0_0" index="0" disallow="tram rail_urban rail rail_electric rail_fast ship" speed="13.89" length="3.00" shape="297.63,527.38 300.42,526.30"/>
        <lane id=":1815367406_0_1" index="1" disallow="tram rail_urban rail rail_electric rail_fast ship" speed="13.89" length="3.00" shape="298.78,530.37 301.58,529.29"/>
        <lane id=":1815367406_0_2" index="2" disallow="tram rail_urban rail rail_electric rail_fast ship" speed="13.89" length="3.00" shape="299.93,533.36 302.74,532.27"/>
    </edge>
    <edge id=":1920075450_0" function="internal">
        <lane id=":1920075450_0_0" index="0" disallow="tram rail_urban rail rail_electric rail_fast ship" speed="3.65" length="4.67" shape="391.70,657.54 391.52,658.97 390.99,659.69 390.10,659.69 388.84,658.98"/>
    </edge>
    <edge id=":20980427_0" function="internal">
        <lane id=":20980427_0_0" index="0" disallow="tram rail_urban rail rail_electric rail_fast ship" speed="13.89" length="3.00" shape="303.13,489.65 301.83,486.95"/>
    </edge>
    <edge id=":20980427_1" function="internal">
        <lane id=":20980427_1_0" index="0" disallow="tram rail_urban rail rail_electric rail_fast ship" speed="3.65" length="2.34" shape="303.13,489.65 303.33,488.23 303.88,487.52"/>
    </edge>
    <edge id=":20980427_4" function="internal">
        <lane id=":20980427_4_0" index="0" disallow="tram rail_urban rail rail_electric rail_fast ship" speed="3.65" length="2.34" shape="303.88,487.52 304.77,487.53 306.01,488.27"/>
    </edge>
    <edge id=":20980427_2" function="internal">
        <lane id=":20980427_2_0" index="0" disallow="tram rail_urban rail rail_electric rail_fast ship" speed="13.89" length="3.00" shape="304.72,485.57 306.01,488.27"/>
    </edge>
    <edge id=":20980427_3" function="internal">
        <lane id=":20980427_3_0" index="0" disallow="tram rail_urban rail rail_electric rail_fast ship" speed="3.65" length="2.34" shape="304.72,485.57 304.51,486.99 303.96,487.70"/>
    </edge>
    <edge id=":20980427_5" function="internal">
        <lane id=":20980427_5_0" index="0" disallow="tram rail_urban rail rail_electric rail_fast ship" speed="3.65" length="2.34" shape="303.96,487.70 303.07,487.68 301.83,486.95"/>
    </edge>
    <edge id=":20980459_0" function="internal">
        <lane id=":20980459_0_0" index="0" disallow="tram rail_urban rail rail_electric rail_fast ship" speed="13.89" length="12.25" shape="321.22,527.98 320.37,524.80 319.18,522.28 317.75,519.83 316.18,516.89"/>
    </edge>
    <edge id=":20980459_1" function="internal">
        <lane id=":20980459_1_0" index="0" disallow="tram rail_urban rail rail_electric rail_fast ship" speed="7.72" length="10.99" shape="321.22,527.98 321.26,525.55 322.30,523.40 324.34,521.54 327.36,519.95"/>
    </edge>
    <edge id=":20980459_2" function="internal">
        <lane id=":20980459_2_0" index="0" disallow="tram rail_urban rail rail_electric rail_fast ship" speed="4.83" length="7.68" shape="321.22,527.98 320.98,525.29 321.46,523.96 322.66,523.99 324.57,525.39"/>
    </edge>
    <edge id=":20980459_3" function="internal">
        <lane id=":20980459_3_0" index="0" disallow="tram rail_urban rail rail_electric rail_fast ship" speed="6.32" length="8.10" shape="319.06,515.50 320.16,516.97 321.71,517.71 323.71,517.72 326.15,516.99"/>
    </edge>
    <edge id=":20980459_4" function="internal">
        <lane id=":20980459_4_0" index="0" disallow="tram rail_urban rail rail_electric rail_fast ship" speed="13.89" length="11.44" shape="319.06,515.50 320.32,518.48 321.24,520.87 322.46,523.06 324.57,525.39"/>
    </edge>
    <edge id=":20980459_5" function="internal">
        <lane id=":20980459_5_0" index="0" disallow="tram rail_urban rail rail_electric rail_fast ship" speed="3.65" length="2.34" shape="319.06,515.50 318.86,516.93 318.31,517.64"/>
    </edge>
    <edge id=":20980459_10" function="internal">
        <lane id=":20980459_10_0" index="0" disallow="tram rail_urban rail rail_electric rail_fast ship" speed="3.65" length="2.34" shape="318.31,517.64 317.42,517.62 316.18,516.89"/>
    </edge>
    <edge id=":20980459_6" function="internal">
        <lane id=":20980459_6_0" index="0" disallow="tram rail_urban rail rail_electric rail_fast ship" speed="5.95" length="7.47" shape="313.05,522.66 315.06,521.47 316.25,520.11 316.62,518.58 316.18,516.89"/>
    </edge>
    <edge id=":20980459_7" function="internal">
        <lane id=":20980459_7_0" index="0" disallow="tram rail_urban rail rail_electric rail_fast ship" speed="13.89" length="14.21" shape="313.05,522.66 326.15,516.99"/>
        <lane id=":20980459_7_1" index="1" disallow="tram rail_urban rail rail_electric rail_fast ship" speed="13.89" length="14.21" shape="314.38,525.57 327.36,519.95"/>
    </edge>
    <edge id=":20980459_9" function="internal">
        <lane id=":20980459_9_0" index="0" disallow="tram rail_urban rail rail_electric rail_fast ship" speed="8.34" length="10.77" shape="314.38,525.57 317.61,524.37 320.39,523.94 322.71,524.28 324.57,525.39"/>
    </edge>
    <edge id=":21530461_0" function="internal">
        <lane id=":21530461_0_0" index="0" allow="tram" speed="13.89" length="7.46" shape="345.50,555.93 344.37,557.82 343.76,559.21 343.38,560.69 342.93,562.86"/>
    </edge>
    <edge id=":21530461_1" function="internal">
        <lane id=":21530461_1_0" index="0" disallow="tram rail_urban rail rail_electric rail_fast ship" speed="13.89" length="4.80" shape="342.41,558.96 344.55,563.26"/>
    </edge>
    <edge id=":21530466_0" function="internal">
        <lane id=":21530466_0_0" index="0" allow="pedestrian delivery bicycle" speed="5.56" length="0.10" shape="361.52,624.09 361.52,624.09"/>
    </edge>
    <edge id=":250800627_0" function="internal">
        <lane id=":250800627_0_0" index="0" disallow="tram rail_urban rail rail_electric rail_fast ship" speed="13.89" length="3.00" shape="312.57,509.35 311.27,506.65"/>
    </edge>
    <edge id=":250800627_1" function="internal">
        <lane id=":250800627_1_0" index="0" disallow="tram rail_urban rail rail_electric rail_fast ship" speed="3.65" length="2.34" shape="312.57,509.35 312.77,507.93 313.32,507.22"/>
    </edge>
    <edge id=":250800627_4" function="internal">
        <lane id=":250800627_4_0" index="0" disallow="tram rail_urban rail rail_electric rail_fast ship" speed="3.65" length="2.34" shape="313.32,507.22 314.21,507.23 315.45,507.97"/>
    </edge>
    <edge id=":250800627_2" function="internal">
        <lane id=":250800627_2_0" index="0" disallow="tram rail_urban rail rail_electric rail_fast ship" speed="13.89" length="3.00" shape="314.15,505.27 315.45,507.97"/>
    </edge>
    <edge id=":250800627_3" function="internal">
        <lane id=":250800627_3_0" index="0" disallow="tram rail_urban rail rail_electric rail_fast ship" speed="3.65" length="2.34" shape="314.15,505.27 313.95,506.69 313.40,507.40"/>
    </edge>
    <edge id=":250800627_5" function="internal">
        <lane id=":250800627_5_0" index="0" disallow="tram rail_urban rail rail_electric rail_fast ship" speed="3.65" length="2.34" shape="313.40,507.40 312.51,507.39 311.27,506.65"/>
    </edge>
    <edge id=":25350583_0" function="internal">
        <lane id=":25350583_0_0" index="0" disallow="tram rail_urban rail rail_electric rail_fast ship" speed="5.72" length="6.60" shape="337.15,533.02 335.01,534.10 333.61,535.19 332.95,536.31 333.03,537.43"/>
    </edge>
    <edge id=":25350583_1" function="internal">
        <lane id=":25350583_1_0" index="0" disallow="tram rail_urban rail rail_electric rail_fast ship" speed="13.89" length="10.84" shape="337.15,533.02 334.10,533.78 331.83,533.53 329.54,533.25 326.44,533.89"/>
        <lane id=":25350583_1_1" index="1" disallow="tram rail_urban rail rail_electric rail_fast ship" speed="13.89" length="10.84" shape="335.90,530.08 332.88,530.82 330.64,530.56 328.37,530.27 325.31,530.89"/>
    </edge>
    <edge id=":25350583_3" function="internal">
        <lane id=":25350583_3_0" index="0" disallow="tram rail_urban rail rail_electric rail_fast ship" speed="13.89" length="14.64" shape="324.72,525.53 327.31,528.16 329.56,531.01 331.47,534.09 333.03,537.43"/>
    </edge>
    <edge id=":25350583_4" function="internal">
        <lane id=":25350583_4_0" index="0" disallow="tram rail_urban rail rail_electric rail_fast ship" speed="5.09" length="6.94" shape="324.72,525.53 326.37,527.35 327.02,528.85 326.67,530.03 325.31,530.89"/>
    </edge>
    <edge id=":25350584_0" function="internal">
        <lane id=":25350584_0_0" index="0" disallow="tram rail_urban rail rail_electric rail_fast ship" speed="6.41" length="8.71" shape="324.79,540.08 323.61,538.09 322.03,536.97 320.04,536.70 317.66,537.30"/>
    </edge>
    <edge id=":25350584_1" function="internal">
        <lane id=":25350584_1_0" index="0" disallow="tram rail_urban rail rail_electric rail_fast ship" speed="13.89" length="12.45" shape="324.79,540.08 323.57,536.96 322.65,534.24 321.91,531.46 321.25,528.17"/>
    </edge>
    <edge id=":25350584_2" function="internal">
        <lane id=":25350584_2_0" index="0" disallow="tram rail_urban rail rail_electric rail_fast ship" speed="13.89" length="9.25" shape="326.25,533.96 317.66,537.30"/>
        <lane id=":25350584_2_1" index="1" disallow="tram rail_urban rail rail_electric rail_fast ship" speed="13.89" length="9.25" shape="325.12,530.96 316.47,534.33"/>
    </edge>
    <edge id=":25350584_4" function="internal">
        <lane id=":25350584_4_0" index="0" disallow="tram rail_urban rail rail_electric rail_fast ship" speed="5.03" length="5.68" shape="325.12,530.96 323.69,531.24 322.57,530.86 321.76,529.84 321.25,528.17"/>
    </edge>
    <edge id=":25350594_0" function="internal">
        <lane id=":25350594_0_0" index="0" disallow="tram rail_urban rail rail_electric rail_fast ship" speed="13.89" length="8.19" shape="413.01,495.28 410.95,496.55 409.73,497.74 408.51,498.91 406.42,500.13"/>
        <lane id=":25350594_0_1" index="1" disallow="tram rail_urban rail rail_electric rail_fast ship" speed="13.89" length="8.19" shape="413.01,495.28 410.75,496.09 409.07,496.28 407.39,496.45 405.10,497.21"/>
        <lane id=":25350594_0_2" index="2" disallow="tram rail_urban rail rail_electric rail_fast ship" speed="13.89" length="8.19" shape="411.62,492.40 409.38,493.20 407.72,493.38 406.05,493.55 403.78,494.30"/>
    </edge>
    <edge id=":2576185757_0" function="internal">
        <lane id=":2576185757_0_0" index="0" disallow="tram rail_urban rail rail_electric rail_fast ship" speed="13.89" length="9.39" shape="338.52,550.20 342.32,558.78"/>
    </edge>
    <edge id=":2576185757_1" function="internal">
        <lane id=":2576185757_1_0" index="0" allow="bus tram" speed="13.89" length="14.55" shape="339.15,563.78 340.36,560.29 341.66,556.93 343.22,553.70 345.19,550.61"/>
    </edge>
    <edge id=":2576185761_0" function="internal">
        <lane id=":2576185761_0_0" index="0" disallow="tram rail_urban rail rail_electric rail_fast ship" speed="13.89" length="6.46" shape="345.32,572.33 343.90,571.04 342.92,570.16 341.91,569.33 340.37,568.19"/>
    </edge>
    <edge id=":2576185761_1" function="internal">
        <lane id=":2576185761_1_0" index="0" allow="bus tram" speed="13.89" length="13.46" shape="342.89,563.06 342.25,566.51 341.87,569.71 341.75,572.92 341.87,576.43"/>
    </edge>
    <edge id=":2576185764_0" function="internal">
        <lane id=":2576185764_0_0" index="0" allow="tram" speed="13.89" length="8.85" shape="338.72,577.93 338.31,575.33 338.04,573.54 338.01,571.75 338.31,569.16"/>
    </edge>
    <edge id=":2576185764_1" function="internal">
        <lane id=":2576185764_1_0" index="0" allow="pedestrian delivery bicycle" speed="5.56" length="10.09" shape="339.06,577.79 337.82,575.07 336.99,573.18 336.31,571.24 335.50,568.37"/>
    </edge>
    <edge id=":2576185772_0" function="internal">
        <lane id=":2576185772_0_0" index="0" allow="pedestrian delivery bicycle" speed="5.56" length="8.22" shape="362.71,615.13 361.63,623.28"/>
    </edge>
    <edge id=":2576185772_1" function="internal">
        <lane id=":2576185772_1_0" index="0" allow="bus tram" speed="13.89" length="8.75" shape="358.88,615.31 362.95,623.07"/>
    </edge>
    <edge id=":295034539_0" function="internal">
        <lane id=":295034539_0_0" index="0" disallow="tram rail_urban rail rail_electric rail_fast ship" speed="3.65" length="4.67" shape="290.43,463.15 290.63,461.72 291.18,461.02 292.07,461.03 293.31,461.77"/>
    </edge>
    <edge id=":3239237480_0" function="internal">
        <lane id=":3239237480_0_0" index="0" disallow="tram rail_urban rail rail_electric rail_fast ship" speed="13.89" length="0.30" shape="344.76,563.67 344.90,563.93"/>
    </edge>
    <edge id=":351981288_0" function="internal">
        <lane id=":351981288_0_0" index="0" disallow="tram rail_urban rail rail_electric rail_fast ship" speed="13.89" length="3.00" shape="300.62,484.42 299.33,481.72"/>
    </edge>
    <edge id=":351981288_1" function="internal">
        <lane id=":351981288_1_0" index="0" disallow="tram rail_urban rail rail_electric rail_fast ship" speed="3.65" length="2.34" shape="300.62,484.42 300.83,483.00 301.38,482.29"/>
    </edge>
    <edge id=":351981288_4" function="internal">
        <lane id=":351981288_4_0" index="0" disallow="tram rail_urban rail rail_electric rail_fast ship" speed="3.65" length="2.34" shape="301.38,482.29 302.27,482.31 303.51,483.04"/>
    </edge>
    <edge id=":351981288_2" function="internal">
        <lane id=":351981288_2_0" index="0" disallow="tram rail_urban rail rail_electric rail_fast ship" speed="13.89" length="3.00" shape="302.21,480.34 303.51,483.04"/>
    </edge>
    <edge id=":351981288_3" function="internal">
        <lane id=":351981288_3_0" index="0" disallow="tram rail_urban rail rail_electric rail_fast ship" speed="3.65" length="2.34" shape="302.21,480.34 302.01,481.76 301.46,482.47"/>
    </edge>
    <edge id=":351981288_5" function="internal">
        <lane id=":351981288_5_0" index="0" disallow="tram rail_urban rail rail_electric rail_fast ship" speed="3.65" length="2.34" shape="301.46,482.47 300.57,482.46 299.33,481.72"/>
    </edge>
    <edge id=":4273905423_0" function="internal">
        <lane id=":4273905423_0_0" index="0" disallow="tram rail_urban rail rail_electric rail_fast ship" speed="13.89" length="8.21" shape="380.58,511.83 378.50,513.04 377.27,514.20 376.03,515.37 373.95,516.58"/>
        <lane id=":4273905423_0_1" index="1" disallow="tram rail_urban rail rail_electric rail_fast ship" speed="13.89" length="8.21" shape="380.58,511.83 378.30,512.59 376.61,512.75 374.92,512.91 372.63,513.67"/>
        <lane id=":4273905423_0_2" index="2" disallow="tram rail_urban rail rail_electric rail_fast ship" speed="13.89" length="8.21" shape="379.26,508.91 376.98,509.67 375.29,509.83 373.60,509.99 371.32,510.75"/>
        <lane id=":4273905423_0_3" index="3" disallow="tram rail_urban rail rail_electric rail_fast ship" speed="13.89" length="8.21" shape="377.94,506.00 375.66,506.76 373.97,506.92 372.29,507.07 370.00,507.83"/>
    </edge>
    <edge id=":4273905424_0" function="internal">
        <lane id=":4273905424_0_0" index="0" disallow="tram rail_urban rail rail_electric rail_fast ship" speed="13.89" length="0.30" shape="250.93,545.36 251.22,545.25"/>
        <lane id=":4273905424_0_1" index="1" disallow="tram rail_urban rail rail_electric rail_fast ship" speed="13.89" length="0.30" shape="252.09,548.34 252.37,548.24"/>
        <lane id=":4273905424_0_2" index="2" disallow="tram rail_urban rail rail_electric rail_fast ship" speed="13.89" length="0.30" shape="253.25,551.33 253.52,551.22"/>
    </edge>
    <edge id=":703443419_0" function="internal">
        <lane id=":703443419_0_0" index="0" allow="pedestrian delivery bicycle" speed="4.73" length="7.45" shape="366.56,614.74 365.19,612.51 364.10,611.80 363.28,612.61 362.73,614.93"/>
    </edge>
    <edge id=":703443419_1" function="internal">
        <lane id=":703443419_1_0" index="0" disallow="tram rail_urban rail rail_electric rail_fast ship" speed="13.89" length="8.67" shape="366.56,614.74 362.66,607.00"/>
    </edge>
    <edge id=":703443419_2" function="internal">
        <lane id=":703443419_2_0" index="0" disallow="tram rail_urban rail rail_electric rail_fast ship" speed="3.65" length="2.34" shape="366.56,614.74 366.73,613.31 367.27,612.59"/>
    </edge>
    <edge id=":703443419_6" function="internal">
        <lane id=":703443419_6_0" index="0" disallow="tram rail_urban rail rail_electric rail_fast ship" speed="3.65" length="2.34" shape="367.27,612.59 368.16,612.59 369.41,613.30"/>
    </edge>
    <edge id=":703443419_3" function="internal">
        <lane id=":703443419_3_0" index="0" disallow="tram rail_urban rail rail_electric rail_fast ship" speed="13.89" length="8.65" shape="365.52,605.57 369.41,613.30"/>
    </edge>
    <edge id=":703443419_4" function="internal">
        <lane id=":703443419_4_0" index="0" allow="pedestrian delivery bicycle" speed="9.72" length="3.86" shape="365.52,605.57 366.09,608.20 365.58,609.25"/>
    </edge>
    <edge id=":703443419_5" function="internal">
        <lane id=":703443419_5_0" index="0" disallow="tram rail_urban rail rail_electric rail_fast ship" speed="3.65" length="2.34" shape="365.52,605.57 365.34,607.00 364.80,607.72"/>
    </edge>
    <edge id=":703443419_7" function="internal">
        <lane id=":703443419_7_0" index="0" allow="pedestrian delivery bicycle" speed="9.72" length="6.41" shape="365.58,609.25 365.18,610.07 363.74,612.04 362.73,614.93"/>
    </edge>
    <edge id=":703443419_8" function="internal">
        <lane id=":703443419_8_0" index="0" disallow="tram rail_urban rail rail_electric rail_fast ship" speed="3.65" length="2.34" shape="364.80,607.72 363.91,607.72 362.66,607.00"/>
    </edge>
    <edge id=":766862380_0" function="internal">
        <lane id=":766862380_0_0" index="0" disallow="tram rail_urban rail rail_electric rail_fast ship" speed="13.89" length="3.69" shape="333.10,537.62 334.54,541.02"/>
    </edge>
    <edge id=":766862380_1" function="internal">
        <lane id=":766862380_1_0" index="0" allow="pedestrian bicycle" speed="4.50" length="3.64" width="2.00" shape="333.10,537.62 333.11,538.17 332.71,538.75 331.91,539.36 330.69,539.99"/>
    </edge>
    <edge id=":766862381_0" function="internal">
        <lane id=":766862381_0_0" index="0" disallow="tram rail_urban rail rail_electric rail_fast ship" speed="13.89" length="5.10" shape="314.14,538.70 309.33,540.53"/>
        <lane id=":766862381_0_1" index="1" disallow="tram rail_urban rail rail_electric rail_fast ship" speed="13.89" length="5.10" shape="312.96,535.73 308.24,537.52"/>
    </edge>
    <edge id=":766862381_2" function="internal">
        <lane id=":766862381_2_0" index="0" allow="pedestrian bicycle" speed="4.48" length="3.75" width="2.00" shape="312.96,535.73 311.89,536.01 311.02,535.92 310.34,535.48 309.85,534.66"/>
    </edge>
    <edge id=":766862393_0" function="internal">
        <lane id=":766862393_0_0" index="0" disallow="tram rail_urban rail rail_electric rail_fast ship" speed="13.89" length="3.64" shape="316.09,516.71 314.52,513.43"/>
    </edge>
    <edge id=":766862393_1" function="internal">
        <lane id=":766862393_1_0" index="0" disallow="tram rail_urban rail rail_electric rail_fast ship" speed="3.65" length="2.34" shape="316.09,516.71 316.29,515.28 316.84,514.57"/>
    </edge>
    <edge id=":766862393_6" function="internal">
        <lane id=":766862393_6_0" index="0" disallow="tram rail_urban rail rail_electric rail_fast ship" speed="3.65" length="2.34" shape="316.84,514.57 317.74,514.59 318.98,515.32"/>
    </edge>
    <edge id=":766862393_2" function="internal">
        <lane id=":766862393_2_0" index="0" disallow="tram rail_urban rail rail_electric rail_fast ship" speed="13.89" length="3.64" shape="317.40,512.04 318.98,515.32"/>
    </edge>
    <edge id=":766862393_3" function="internal">
        <lane id=":766862393_3_0" index="0" disallow="tram rail_urban rail rail_electric rail_fast ship" speed="3.65" length="2.34" shape="317.40,512.04 317.20,513.47 316.65,514.18"/>
    </edge>
    <edge id=":766862393_7" function="internal">
        <lane id=":766862393_7_0" index="0" disallow="tram rail_urban rail rail_electric rail_fast ship" speed="3.65" length="2.34" shape="316.65,514.18 315.76,514.16 314.52,513.43"/>
    </edge>
    <edge id=":766862393_4" function="internal">
        <lane id=":766862393_4_0" index="0" disallow="tram rail_urban rail rail_electric rail_fast ship" speed="6.27" length="5.21" shape="313.05,518.23 313.97,516.71 314.53,515.41 314.71,514.31 314.52,513.43"/>
    </edge>
    <edge id=":766862393_5" function="internal">
        <lane id=":766862393_5_0" index="0" disallow="tram rail_urban rail rail_electric rail_fast ship" speed="5.21" length="8.13" shape="313.05,518.23 315.03,515.69 316.68,514.36 318.00,514.23 318.98,515.32"/>
    </edge>
    <edge id=":766862397_0" function="internal">
        <lane id=":766862397_0_0" index="0" disallow="tram rail_urban rail rail_electric rail_fast ship" speed="13.89" length="5.14" shape="346.54,528.97 341.73,531.08"/>
        <lane id=":766862397_0_1" index="1" disallow="tram rail_urban rail rail_electric rail_fast ship" speed="13.89" length="5.14" shape="345.22,526.05 340.48,528.13"/>
        <lane id=":766862397_0_2" index="2" disallow="tram rail_urban rail rail_electric rail_fast ship" speed="13.89" length="5.14" shape="343.90,523.14 339.22,525.19"/>